Version 4
SHEET 1 880 680
WIRE 592 -160 224 -160
WIRE 224 -112 224 -160
WIRE 176 -96 128 -96
WIRE 128 32 128 -96
WIRE 128 32 -144 32
WIRE 224 32 224 -16
WIRE 368 32 224 32
WIRE 592 32 592 -160
WIRE 224 64 224 32
WIRE 128 144 128 32
WIRE 176 144 128 144
WIRE -144 192 -144 112
WIRE 224 192 224 160
WIRE 592 192 592 112
FLAG 224 192 0
FLAG 368 32 out
FLAG 592 192 0
FLAG -144 192 0
SYMBOL nmos 176 64 R0
SYMATTR InstName M1
SYMBOL pmos 176 -16 M180
SYMATTR InstName M2
SYMBOL voltage 592 16 R0
WINDOW 123 0 0 Left 2
WINDOW 39 0 0 Left 2
SYMATTR InstName V1
SYMATTR Value 10
SYMBOL voltage -144 16 R0
WINDOW 123 0 0 Left 2
WINDOW 39 0 0 Left 2
SYMATTR InstName V2
SYMATTR Value PULSE(0 10 1m 1n 1n 1m 2m 10)
TEXT -128 368 Left 2 !.tran 0 4m 0 0.01m
