Version 4
SHEET 1 880 680
WIRE 592 -192 -112 -192
WIRE 304 -160 224 -160
WIRE 448 -160 304 -160
WIRE 224 -144 224 -160
WIRE 304 -144 304 -160
WIRE 384 -144 304 -144
WIRE -112 -80 -112 -112
WIRE 128 -80 -112 -80
WIRE -112 -64 -112 -80
WIRE 224 -64 224 -80
WIRE 304 -64 224 -64
WIRE -304 -16 -608 -16
WIRE -176 -16 -224 -16
WIRE 448 32 448 -160
WIRE 592 32 592 -192
WIRE -608 48 -608 -16
WIRE 304 48 304 16
WIRE 384 48 384 -64
WIRE 384 48 304 48
WIRE -112 64 -112 32
WIRE 224 64 224 -64
WIRE 128 144 128 -80
WIRE 176 144 128 144
WIRE 224 192 224 160
WIRE 448 192 448 112
WIRE 592 192 592 112
WIRE -608 208 -608 128
FLAG 224 192 0
FLAG 592 192 0
FLAG -608 208 0
FLAG -112 64 0
FLAG 448 192 0
SYMBOL nmos 176 64 R0
SYMATTR InstName M1
SYMATTR Value IRFH3702
SYMBOL voltage 592 16 R0
WINDOW 123 0 0 Left 2
WINDOW 39 0 0 Left 2
SYMATTR InstName V1
SYMATTR Value 12
SYMBOL voltage -608 32 R0
WINDOW 123 0 0 Left 2
WINDOW 39 0 0 Left 2
SYMATTR InstName V2
SYMATTR Value PULSE(0 5 1m 1n 1n 1m 2m 10)
SYMBOL ind 288 -80 R0
SYMATTR InstName L1
SYMATTR Value 10n
SYMBOL npn -176 -64 R0
SYMATTR InstName Q1
SYMBOL res -128 -208 R0
SYMATTR InstName R1
SYMATTR Value 10K
SYMBOL res -208 -32 R90
WINDOW 0 0 56 VBottom 2
WINDOW 3 32 56 VTop 2
SYMATTR InstName R2
SYMATTR Value 10K
SYMBOL diode 240 -80 R180
WINDOW 0 24 64 Left 2
WINDOW 3 24 0 Left 2
SYMATTR InstName D1
SYMBOL voltage 448 16 R0
WINDOW 123 0 0 Left 2
WINDOW 39 0 0 Left 2
SYMATTR InstName V3
SYMATTR Value 12
SYMBOL res 368 -160 R0
SYMATTR InstName R3
SYMATTR Value 5
TEXT -128 368 Left 2 !.tran 0 4m 0 0.01m
